@<TRIPOS>MOLECULE
MOL
   51    54     0     0     0
SMALL
NO_CHARGES

@<TRIPOS>ATOM
      1 C1          6.5105   -4.3601   -5.1493 C.ar      1 <0>         0.0000
      2 C2          3.5005   -7.4555   -5.6910 C.ar      1 <0>         0.0000
      3 C3          3.5858   -2.3132   -3.3129 C.3       1 <0>         0.0000
      4 C4          2.3320   -1.7305   -2.6635 C.3       1 <0>         0.0000
      5 C5          1.8499   -2.6271   -1.5151 C.3       1 <0>         0.0000
      6 C6          0.6274   -2.0379   -0.8150 C.3       1 <0>         0.0000
      7 C7          0.8871   -0.6143   -0.3321 C.3       1 <0>         0.0000
      8 C8          1.3688    0.2840   -1.4671 C.3       1 <0>         0.0000
      9 C9          2.5923   -0.3014   -2.1685 C.3       1 <0>         0.0000
     10 C10         9.6279   -0.5114   -4.9837 C.ar      1 <0>         0.0000
     11 C11         9.0445    0.0571   -3.8515 C.ar      1 <0>         0.0000
     12 C12         8.0338   -0.6227   -3.1717 C.ar      1 <0>         0.0000
     13 C13         7.6066   -1.8711   -3.6242 C.ar      1 <0>         0.0000
     14 N1          5.5168   -3.6772   -4.5312 N.ar      1 <0>         0.0000
     15 C14         4.3045   -4.2763   -4.4468 C.ar      1 <0>         0.0000
     16 O1          3.2846   -3.6025   -3.8252 O.3       1 <0>         0.0000
     17 C15         4.1381   -5.5461   -4.9905 C.ar      1 <0>         0.0000
     18 N2          3.0573   -6.3889   -5.0588 N.ar      1 <0>         0.0000
     19 N3          4.8214   -7.3403   -6.0345 N.pl3     1 <0>         0.0000
     20 C16         5.2465   -6.1200   -5.5924 C.ar      1 <0>         0.0000
     21 N4          6.4719   -5.5876   -5.7121 N.ar      1 <0>         0.0000
     22 N5          7.7573   -3.6968   -5.2141 N.pl3     1 <0>         0.0000
     23 C17         8.1900   -2.4396   -4.7565 C.ar      1 <0>         0.0000
     24 C18         9.2006   -1.7597   -5.4363 C.ar      1 <0>         0.0000
     25 H1          2.9234   -8.3376   -5.9294 H         1 <0>         0.0000
     26 H2          4.3912   -2.4052   -2.5781 H         1 <0>         0.0000
     27 H3          3.9230   -1.6767   -4.1364 H         1 <0>         0.0000
     28 H4          1.5433   -1.6929   -3.4268 H         1 <0>         0.0000
     29 H5          1.6020   -3.6245   -1.8976 H         1 <0>         0.0000
     30 H6          2.6555   -2.7600   -0.7816 H         1 <0>         0.0000
     31 H7         -0.2246   -2.0397   -1.5059 H         1 <0>         0.0000
     32 H8          0.3494   -2.6700    0.0360 H         1 <0>         0.0000
     33 H9         -0.0293   -0.1996    0.1028 H         1 <0>         0.0000
     34 H10         1.6413   -0.6314    0.4643 H         1 <0>         0.0000
     35 H11         0.5598    0.4174   -2.1959 H         1 <0>         0.0000
     36 H12         1.6099    1.2777   -1.0728 H         1 <0>         0.0000
     37 H13         3.4423   -0.2958   -1.4740 H         1 <0>         0.0000
     38 H14         2.8683    0.3426   -3.0121 H         1 <0>         0.0000
     39 H15        10.4151    0.0096   -5.5219 H         1 <0>         0.0000
     40 H16         7.5714   -0.1871   -2.2899 H         1 <0>         0.0000
     41 H17         6.8183   -2.3920   -3.0869 H         1 <0>         0.0000
     42 H18         5.3767   -8.0295   -6.5237 H         1 <0>         0.0000
     43 H19         8.4770   -4.2359   -5.6836 H         1 <0>         0.0000
     44 H20         9.6609   -2.1931   -6.3204 H         1 <0>         0.0000
     45 S1          9.5780    1.6204   -3.2861 S.o2      1 <0>         0.0000
     46 O2          9.2809    1.7083   -1.8635 O.2       1 <0>         0.0000
     47 O3         10.9367    1.8539   -3.7564 O.2       1 <0>         0.0000
     48 C19         8.5295    2.7788   -4.1360 C.3       1 <0>         0.0000
     49 H21         8.8216    3.7741   -3.8179 H         1 <0>         0.0000
     50 H22         8.6883    2.6394   -5.2000 H         1 <0>         0.0000
     51 H23         7.5058    2.5563   -3.8544 H         1 <0>         0.0000
@<TRIPOS>BOND
     1    1   14 
     2    1   21 
     3    1   22 
     4    2   18 
     5    2   19 
     6    2   25 
     7    3    4 
     8    3   16 
     9    3   26 
    10    3   27 
    11    4    5 
    12    4    9 
    13    4   28 
    14    5    6 
    15    5   29 
    16    5   30 
    17    6    7 
    18    6   31 
    19    6   32 
    20    7    8 
    21    7   33 
    22    7   34 
    23    8    9 
    24    8   35 
    25    8   36 
    26    9   37 
    27    9   38 
    28   10   11 
    29   10   24 
    30   10   39 
    31   11   12 
    32   11   45 
    33   12   13 
    34   12   40 
    35   13   23 
    36   13   41 
    37   14   15 
    38   15   16 
    39   15   17 
    40   17   18 
    41   17   20 
    42   19   20 
    43   19   42 
    44   20   21 
    45   22   23 
    46   22   43 
    47   23   24 
    48   24   44 
    49   45   46 
    50   45   47 
    51   45   48 
    52   48   49 
    53   48   50 
    54   48   51 
