@<TRIPOS>MOLECULE
MOL
   49    52     0     0     0
SMALL
NO_CHARGES

@<TRIPOS>ATOM
      1 C1          0.0000    0.0000    0.0000 C.ar      1 <0>         0.0000
      2 C5          0.0000    0.0000    0.0000 C.ar      1 <0>         0.0000
      3 C2          0.0000    0.0000    0.0000 C.ar      1 <0>         0.0000
      4 C4          0.0000    0.0000    0.0000 C.ar      1 <0>         0.0000
      5 C19         0.0000    0.0000    0.0000 C.ar      1 <0>         0.0000
      6 C6          0.0000    0.0000    0.0000 C.ar      1 <0>         0.0000
      7 C10         0.0000    0.0000    0.0000 C.ar      1 <0>         0.0000
      8 C3          0.0000    0.0000    0.0000 C.ar      1 <0>         0.0000
      9 C9          0.0000    0.0000    0.0000 C.ar      1 <0>         0.0000
     10 C11         0.0000    0.0000    0.0000 C.ar      1 <0>         0.0000
     11 C8          0.0000    0.0000    0.0000 C.ar      1 <0>         0.0000
     12 C7          0.0000    0.0000    0.0000 C.2       1 <0>         0.0000
     13 C16         0.0000    0.0000    0.0000 C.3       1 <0>         0.0000
     14 C17         0.0000    0.0000    0.0000 C.3       1 <0>         0.0000
     15 C15         0.0000    0.0000    0.0000 C.3       1 <0>         0.0000
     16 C18         0.0000    0.0000    0.0000 C.3       1 <0>         0.0000
     17 C14         0.0000    0.0000    0.0000 C.3       1 <0>         0.0000
     18 C13         0.0000    0.0000    0.0000 C.3       1 <0>         0.0000
     19 C12         0.0000    0.0000    0.0000 C.3       1 <0>         0.0000
     20 N5          0.0000    0.0000    0.0000 N.ar      1 <0>         0.0000
     21 N3          0.0000    0.0000    0.0000 N.ar      1 <0>         0.0000
     22 N4          0.0000    0.0000    0.0000 N.ar      1 <0>         0.0000
     23 N6          0.0000    0.0000    0.0000 N.pl3     1 <0>         0.0000
     24 N1          0.0000    0.0000    0.0000 N.am      1 <0>         0.0000
     25 N2          0.0000    0.0000    0.0000 N.pl3     1 <0>         0.0000
     26 O1          0.0000    0.0000    0.0000 O.2       1 <0>         0.0000
     27 O2          0.0000    0.0000    0.0000 O.3       1 <0>         0.0000
     28 H1          0.0000    0.0000    0.0000 H         1 <0>         0.0000
     29 H4          0.0000    0.0000    0.0000 H         1 <0>         0.0000
     30 H22         0.0000    0.0000    0.0000 H         1 <0>         0.0000
     31 H5          0.0000    0.0000    0.0000 H         1 <0>         0.0000
     32 H21         0.0000    0.0000    0.0000 H         1 <0>         0.0000
     33 H13         0.0000    0.0000    0.0000 H         1 <0>         0.0000
     34 H14         0.0000    0.0000    0.0000 H         1 <0>         0.0000
     35 H11         0.0000    0.0000    0.0000 H         1 <0>         0.0000
     36 H12         0.0000    0.0000    0.0000 H         1 <0>         0.0000
     37 H15         0.0000    0.0000    0.0000 H         1 <0>         0.0000
     38 H16         0.0000    0.0000    0.0000 H         1 <0>         0.0000
     39 H9          0.0000    0.0000    0.0000 H         1 <0>         0.0000
     40 H10         0.0000    0.0000    0.0000 H         1 <0>         0.0000
     41 H17         0.0000    0.0000    0.0000 H         1 <0>         0.0000
     42 H18         0.0000    0.0000    0.0000 H         1 <0>         0.0000
     43 H19         0.0000    0.0000    0.0000 H         1 <0>         0.0000
     44 H7          0.0000    0.0000    0.0000 H         1 <0>         0.0000
     45 H8          0.0000    0.0000    0.0000 H         1 <0>         0.0000
     46 H20         0.0000    0.0000    0.0000 H         1 <0>         0.0000
     47 H2          0.0000    0.0000    0.0000 H         1 <0>         0.0000
     48 H3          0.0000    0.0000    0.0000 H         1 <0>         0.0000
     49 H6          0.0000    0.0000    0.0000 H         1 <0>         0.0000
@<TRIPOS>BOND
     1    1    3 
     2    1    6 
     3    2    4 
     4    2    6 
     5    3    8 
     6    4    8 
     7    5   20 
     8    5   23 
     9    6   12 
    10    7    9 
    11    7   10 
    12    7   20 
    13    8   25 
    14    9   21 
    15    9   23 
    16   10   22 
    17   10   27 
    18   11   21 
    19   11   22 
    20   11   25 
    21   12   24 
    22   12   26 
    23   13   14 
    24   13   15 
    25   14   16 
    26   15   17 
    27   16   18 
    28   17   18 
    29   18   19 
    30   19   27 
    31    1   28 
    32    2   29 
    33    3   30 
    34    4   31 
    35    5   32 
    36   13   33 
    37   13   34 
    38   14   35 
    39   14   36 
    40   15   37 
    41   15   38 
    42   16   39 
    43   16   40 
    44   17   41 
    45   17   42 
    46   18   43 
    47   19   44 
    48   19   45 
    49   23   46 
    50   24   47 
    51   24   48 
    52   25   49 
