@<TRIPOS>MOLECULE
MOL
   49    52     0     0     0
SMALL
NO_CHARGES

@<TRIPOS>ATOM
      1 C1          3.0558   -2.2601   -9.2933 C.ar      1 <0>         0.0000
      2 C5          5.1042   -1.9503  -10.5364 C.ar      1 <0>         0.0000
      3 C2          3.7088   -3.1480   -8.4384 C.ar      1 <0>         0.0000
      4 C4          5.7572   -2.8381   -9.6815 C.ar      1 <0>         0.0000
      5 C19         6.0989   -6.5967   -2.4350 C.ar      1 <0>         0.0000
      6 C6          3.7534   -1.6613  -10.3423 C.ar      1 <0>         0.0000
      7 C10         5.0969   -5.2046   -3.8329 C.ar      1 <0>         0.0000
      8 C3          5.0595   -3.4370   -8.6325 C.ar      1 <0>         0.0000
      9 C9          6.1077   -5.8314   -4.5785 C.ar      1 <0>         0.0000
     10 C11         4.2902   -4.2635   -4.4584 C.ar      1 <0>         0.0000
     11 C8          5.5308   -4.6594   -6.4083 C.ar      1 <0>         0.0000
     12 C7          3.0725   -0.7356  -11.2336 C.2       1 <0>         0.0000
     13 C16         0.1905    0.3091   -2.4161 C.3       1 <0>         0.0000
     14 C17         1.0668   -0.6478   -1.6139 C.3       1 <0>         0.0000
     15 C15        -0.4533   -0.3876   -3.6108 C.3       1 <0>         0.0000
     16 C18         2.1120   -1.3277   -2.4953 C.3       1 <0>         0.0000
     17 C14         0.5893   -1.0673   -4.4956 C.3       1 <0>         0.0000
     18 C13         1.4673   -2.0374   -3.6937 C.3       1 <0>         0.0000
     19 C12         2.5355   -2.6636   -4.5883 C.3       1 <0>         0.0000
     20 N5          5.0049   -5.6306   -2.4250 N.ar      1 <0>         0.0000
     21 N3          6.3812   -5.5943   -5.9066 N.ar      1 <0>         0.0000
     22 N4          4.5188   -3.9905   -5.7760 N.ar      1 <0>         0.0000
     23 N6          6.7171   -6.6973   -3.6756 N.ar      1 <0>         0.0000
     24 N1          1.7248   -0.4813  -10.9966 N.am      1 <0>         0.0000
     25 N2          5.7179   -4.3321   -7.7706 N.pl3     1 <0>         0.0000
     26 O1          3.6645   -0.1995  -12.1869 O.2       1 <0>         0.0000
     27 O2          3.2736   -3.5957   -3.8207 O.3       1 <0>         0.0000
     28 H1          2.0031   -2.0420   -9.1329 H         1 <0>         0.0000
     29 H4          5.6575   -1.4893  -11.3506 H         1 <0>         0.0000
     30 H22         3.1556   -3.6090   -7.6242 H         1 <0>         0.0000
     31 H5          6.8100   -3.0563   -9.8417 H         1 <0>         0.0000
     32 H21         6.4710   -7.2155   -1.6369 H         1 <0>         0.0000
     33 H13        -0.5891    0.7259   -1.7684 H         1 <0>         0.0000
     34 H14         0.7985    1.1510   -2.7693 H         1 <0>         0.0000
     35 H11         1.5655   -0.1002   -0.8060 H         1 <0>         0.0000
     36 H12         0.4366   -1.4109   -1.1407 H         1 <0>         0.0000
     37 H15        -1.1720   -1.1355   -3.2539 H         1 <0>         0.0000
     38 H16        -1.0189    0.3421   -4.2012 H         1 <0>         0.0000
     39 H9          2.8293   -0.5757   -2.8484 H         1 <0>         0.0000
     40 H10         2.6788   -2.0485   -1.8940 H         1 <0>         0.0000
     41 H17         0.0815   -1.6043   -5.3057 H         1 <0>         0.0000
     42 H18         1.2159   -0.2998   -4.9679 H         1 <0>         0.0000
     43 H19         0.8292   -2.8464   -3.3135 H         1 <0>         0.0000
     44 H7          3.2061   -1.8901   -4.9607 H         1 <0>         0.0000
     45 H8          2.0633   -3.1773   -5.4248 H         1 <0>         0.0000
     46 H20         7.4969   -7.3113   -3.8930 H         1 <0>         0.0000
     47 H2          1.2269    0.1605  -11.6039 H         1 <0>         0.0000
     48 H3          1.2291   -0.9240  -10.2295 H         1 <0>         0.0000
     49 H6          6.4763   -4.8444   -8.2084 H         1 <0>         0.0000
@<TRIPOS>BOND
     1    1    3 ar
     2    1    6 ar
     3    2    4 ar
     4    2    6 ar
     5    3    8 ar
     6    4    8 ar
     7    5   20 ar
     8    5   23 ar
     9    6   12 1
    10    7    9 ar
    11    7   10 ar
    12    7   20 ar
    13    8   25 1
    14    9   21 ar
    15    9   23 ar
    16   10   22 ar
    17   10   27 1
    18   11   21 ar
    19   11   22 ar
    20   11   25 1
    21   12   24 am
    22   12   26 2
    23   13   14 1
    24   13   15 1
    25   14   16 1
    26   15   17 1
    27   16   18 1
    28   17   18 1
    29   18   19 1
    30   19   27 1
    31    1   28 1
    32    2   29 1
    33    3   30 1
    34    4   31 1
    35    5   32 1
    36   13   33 1
    37   13   34 1
    38   14   35 1
    39   14   36 1
    40   15   37 1
    41   15   38 1
    42   16   39 1
    43   16   40 1
    44   17   41 1
    45   17   42 1
    46   18   43 1
    47   19   44 1
    48   19   45 1
    49   23   46 1
    50   24   47 1
    51   24   48 1
    52   25   49 1
